*NODE, NSET=nodes
1, 0.000000, 0.000000, 0.000000
2, 2.438400, 0.000000, 0.000000
3, 6.705600, 3.657600, 0.000000
4, 33.223200, 4.120466, 0.000000
5, 35.052000, 4.152388, 0.000000
6, 35.052000, 8.419588, 0.000000
8, 6.705600, 22.250400, 0.000000
10, 4.267200, 29.870400, 0.000000
11, 0.609600, 33.528000, 0.000000
12, 0.000000, 33.528000, 0.000000
13, 0.609600, 0.000000, 0.000000
14, 1.219200, 0.000000, 0.000000
15, 1.828800, 0.000000, 0.000000
16, 0.304800, 0.000000, 0.000000
17, 0.914400, 0.000000, 0.000000
18, 1.524000, 0.000000, 0.000000
19, 2.133600, 0.000000, 0.000000
20, 3.505200, 0.914400, 0.000000
21, 4.572000, 1.828800, 0.000000
22, 5.638800, 2.743200, 0.000000
** ... 377 like lines cut

*ELEMENT, TYPE=CPE8, ELSET=EAll
1, 3, 27, 148, 147, 34, 206, 207, 208
2, 27, 28, 138, 148, 35, 209, 210, 206
3, 148, 138, 130, 146, 210, 211, 212, 213
4, 147, 148, 146, 124, 207, 213, 214, 215
5, 126, 149, 151, 150, 216, 217, 218, 219
6, 149, 57, 58, 151, 220, 69, 221, 217
7, 151, 58, 59, 135, 221, 70, 222, 223
8, 150, 151, 135, 32, 218, 223, 224, 225
9, 10, 144, 153, 81, 226, 227, 228, 85
10, 144, 101, 102, 153, 229, 113, 230, 227
11, 153, 102, 103, 152, 230, 114, 231, 232
12, 81, 153, 152, 80, 228, 232, 233, 84
13, 132, 154, 158, 157, 234, 235, 236, 237
14, 154, 109, 155, 158, 238, 239, 240, 235
15, 158, 155, 125, 156, 240, 241, 242, 243
16, 157, 158, 156, 127, 236, 243, 244, 245
17, 132, 159, 163, 162, 246, 247, 248, 249
18, 159, 124, 160, 163, 250, 251, 252, 247
19, 163, 160, 123, 161, 252, 253, 254, 255
20, 162, 163, 161, 131, 248, 255, 256, 257
** ... 92 like lines cut

*ELSET,ELSET=PART0_elements
1, 2, 3, 4, 5, 6,
7, 8, 9, 10, 11, 12,
13, 14, 15, 16, 17, 18,
19, 20, 21, 22, 23, 24,
25, 26, 27, 28, 29, 30,
31, 32, 33, 34, 35, 36,
37, 38, 39, 40, 41, 42,
43, 44, 45, 46, 47, 48,
49, 50, 51, 52, 53, 54,
55, 56, 57, 58, 59, 60,
61, 62, 63, 64, 65, 66,
67, 68, 69, 70, 71, 72,
73, 74, 75, 76, 77, 78,
79, 80, 81, 82, 83, 84,
85, 86, 87, 88, 89, 90,
91, 92, 93, 94, 95, 96,
97, 98, 99, 100, 101, 102,
103, 104, 105, 106, 107, 108,
109, 110, 111, 112
*NSET,NSET=PART0_nodes
3, 4, 5, 6, 8, 10,
11, 12, 1, 2, 14, 21,
28, 30, 32, 43, 50, 57,
59, 61, 63, 65, 19, 80,
87, 94, 101, 103, 105, 107,
109, 106, 37, 220, 176, 177,
178, 231, 179, 73, 180, 54,
55, 182, 183, 203, 184, 47,
185, 344, 186, 187, 41, 188,
347, 189, 202, 190, 373, 82,
192, 193, 200, 194, 365, 195,
36, 196, 46, 197, 199, 35,
52, 76, 77, 78, 83, 84,
85, 139, 319, 137, 138, 38,
53, 201, 303, 136, 34, 104,
18, 31, 56, 135, 198, 140,
142, 126, 150, 244, 108, 367,
171, 172, 226, 173, 68, 174,
191, 175, 102, 329, 146, 216,
147, 33, 60, 123, 127, 51,
** ... 47 like lines cut
*NSET,NSET=L9_nodes
12, 1, 101, 103, 105, 107,
109, 106, 104, 108, 102, 111,
112, 113, 114, 115, 116, 117,
118, 119, 120, 121, 122, 100,
110

*MATERIAL,NAME=concrete
*ELASTIC
30000000000,0.2
*DENSITY
2300
*SOLID SECTION,ELSET=PART0_elements,MATERIAL=concrete
*NODAL THICKNESS
PART0_nodes, 176.784000
*STEP
*STATIC
** Pressure on component: L3-L8_faces
*DLOAD
96,P1,101325.000000
100,P3,101325.000000
95,P1,101325.000000
99,P2,101325.000000
78,P1,101325.000000
76,P3,101325.000000
77,P1,101325.000000
75,P3,101325.000000
22,P2,101325.000000
48,P3,101325.000000
33,P4,101325.000000
43,P3,101325.000000
44,P3,101325.000000
36,P4,101325.000000
23,P2,101325.000000
78,P2,101325.000000
79,P2,101325.000000
47,P3,101325.000000
7,P2,101325.000000
6,P2,101325.000000
** ... 12 like lines cut
** Fluid pressure on component: L0-L2_faces
*DLOAD
86,P2,424254.504000
*DLOAD
68,P3,406313.976000
*DLOAD
87,P2,418274.328000
*DLOAD
67,P3,412294.152000
*DLOAD
57,P4,366695.310000
*DLOAD
68,P4,398091.234000
*DLOAD
60,P4,377160.618000
*DLOAD
65,P4,387625.926000
*DLOAD
72,P3,117583.603500
*DLOAD
89,P1,215135.224500
*DLOAD
1,P1,345204.052500
*DLOAD
2,P1,312686.845500
*DLOAD
90,P1,182618.017500
*DLOAD
92,P1,280169.638500
*DLOAD
93,P1,247652.431500
*DLOAD
71,P3,150100.810500
** Gravity on component: PART0_elements
*DLOAD
PART0_elements,GRAV,9.810000,-1.,0.,0.
*BOUNDARY
L9_nodes,1,1,0.000000
*BOUNDARY
L9_nodes,2,2,0.000000
*EL FILE
E,S
*NODE FILE
RF,U
*EL PRINT,ELSET=EALL
S
*END STEP
