*NODE, NSET=nodes
1, 0.000000, 0.000000, 0.000000
2, 2.438400, 0.000000, 0.000000
3, 6.705600, 3.657600, 0.000000
4, 33.223200, 4.120466, 0.000000
5, 35.052000, 4.152388, 0.000000
6, 35.052000, 8.419588, 0.000000
8, 6.705600, 22.250400, 0.000000
10, 4.267200, 29.870400, 0.000000
11, 0.609600, 33.528000, 0.000000
12, 0.000000, 33.528000, 0.000000
13, 0.609600, 0.000000, 0.000000
14, 1.219200, 0.000000, 0.000000
15, 1.828800, 0.000000, 0.000000
16, 0.304800, 0.000000, 0.000000
17, 0.914400, 0.000000, 0.000000
18, 1.524000, 0.000000, 0.000000
19, 2.133600, 0.000000, 0.000000
20, 3.505200, 0.914400, 0.000000
21, 4.572000, 1.828800, 0.000000
22, 5.638800, 2.743200, 0.000000
** ... 455 like lines cut

*ELEMENT, TYPE=CPE8, ELSET=EAll
1, 57, 58, 150, 149, 69, 232, 233, 234
2, 58, 59, 147, 150, 70, 235, 236, 232
3, 150, 147, 32, 148, 236, 237, 238, 239
4, 149, 150, 148, 129, 233, 239, 240, 241
5, 130, 151, 154, 153, 242, 243, 244, 245
6, 151, 105, 106, 154, 246, 117, 247, 243
7, 154, 106, 107, 152, 247, 118, 248, 249
8, 153, 154, 152, 135, 244, 249, 250, 251
9, 8, 79, 158, 157, 82, 252, 253, 254
10, 79, 80, 155, 158, 83, 255, 256, 252
11, 158, 155, 103, 156, 256, 257, 258, 259
12, 157, 158, 156, 136, 253, 259, 260, 261
13, 65, 66, 161, 160, 77, 262, 263, 264
14, 66, 8, 157, 161, 78, 254, 265, 262
15, 161, 157, 136, 159, 265, 261, 266, 267
16, 160, 161, 159, 130, 263, 267, 268, 269
17, 139, 162, 165, 164, 270, 271, 272, 273
18, 162, 131, 163, 165, 274, 275, 276, 271
19, 165, 163, 28, 29, 276, 277, 36, 278
20, 164, 165, 29, 30, 272, 278, 37, 279
** ... 118 like lines cut

*ELSET,ELSET=PART0_elements
1, 2, 3, 4, 5, 6,
7, 8, 9, 10, 11, 12,
13, 14, 15, 16, 17, 18,
19, 20, 21, 22, 23, 24,
25, 26, 27, 28, 29, 30,
31, 32, 33, 34, 35, 36,
37, 38, 39, 40, 41, 42,
43, 44, 45, 46, 47, 48,
49, 50, 51, 52, 53, 54,
55, 56, 57, 58, 59, 60,
61, 62, 63, 64, 65, 66,
67, 68, 69, 70, 71, 72,
73, 74, 75, 76, 77, 78,
79, 80, 81, 82, 83, 84,
85, 86, 87, 88, 89, 90,
91, 92, 93, 94, 95, 96,
97, 98, 99, 100, 101, 102,
103, 104, 105, 106, 107, 108,
109, 110, 111, 112, 113, 114,
115, 116, 117, 118, 119, 120,
121, 122, 123, 124, 125, 126,
127, 128, 129, 130, 131, 132,
133, 134, 135, 136, 137, 138
*NSET,NSET=PART0_nodes
103, 105, 101, 107, 109, 143,
156, 157, 161, 162, 163, 164,
165, 208, 209, 210, 177, 178,
197, 181, 182, 183, 184, 185,
191, 192, 193, 194, 195, 196,
198, 200, 201, 199, 86, 160,
81, 62, 79, 150, 154, 66,
64, 140, 58, 132, 133, 123,
95, 131, 127, 125, 186, 187,
190, 188, 189, 15, 44, 27,
56, 42, 22, 88, 31, 149,
135, 106, 108, 110, 124, 126,
151, 152, 153, 159, 158, 155,
20, 29, 33, 142, 166, 167,
168, 170, 169, 172, 171, 176,
179, 180, 174, 173, 175, 51,
13, 60, 144, 145, 148, 129,
202, 203, 204, 205, 206, 207,
211, 212, 49, 138, 134, 128,
146, 147, 139, 102, 104, 130,
** ... 60 like lines cut
*NSET,NSET=L9_nodes
103, 105, 101, 107, 109, 106,
108, 110, 102, 104, 100, 12,
1, 111, 112, 113, 114, 115,
116, 117, 118, 119, 120, 121,
122

*MATERIAL,NAME=concrete
*ELASTIC
30000000000,0.2
*DENSITY
2300
*SOLID SECTION,ELSET=PART0_elements,MATERIAL=concrete
*NODAL THICKNESS
PART0_nodes, 176.784000
*STEP
*STATIC
** Pressure on component: L3-L8_faces
*DLOAD
50,P1,101325.000000
105,P1,101325.000000
49,P1,101325.000000
106,P1,101325.000000
110,P1,101325.000000
106,P2,101325.000000
109,P1,101325.000000
107,P2,101325.000000
56,P3,101325.000000
1,P1,101325.000000
2,P1,101325.000000
59,P3,101325.000000
60,P3,101325.000000
13,P1,101325.000000
29,P1,101325.000000
14,P1,101325.000000
110,P2,101325.000000
30,P1,101325.000000
111,P2,101325.000000
55,P3,101325.000000
** ... 12 like lines cut
** Fluid pressure on component: L0-L2_faces
*DLOAD
114,P2,424254.504000
*DLOAD
120,P3,406313.976000
*DLOAD
115,P2,418274.328000
*DLOAD
119,P3,412294.152000
*DLOAD
90,P1,366695.310000
*DLOAD
120,P4,398091.234000
*DLOAD
89,P1,377160.618000
*DLOAD
117,P4,387625.926000
*DLOAD
121,P1,150100.810500
*DLOAD
122,P1,117583.603500
*DLOAD
19,P3,280169.638500
*DLOAD
43,P3,215135.224500
*DLOAD
20,P3,247652.431500
*DLOAD
44,P3,182618.017500
*DLOAD
102,P2,345204.052500
*DLOAD
103,P2,312686.845500
** Gravity on component: PART0_elements
*DLOAD
PART0_elements,GRAV,9.810000,-1.,0.,0.
*BOUNDARY
L9_nodes,1,1,0.000000
*BOUNDARY
L9_nodes,2,2,0.000000
*EL FILE
E,S
*NODE FILE
RF,U
*EL PRINT,ELSET=EALL
S
*END STEP
