*NODE, NSET=nodes
1, 0.000000, 0.000000, 0.000000
2, 2.438400, 0.000000, 0.000000
3, 6.705600, 3.657600, 0.000000
4, 33.223200, 4.120466, 0.000000
5, 35.052000, 4.152388, 0.000000
6, 35.052000, 8.419588, 0.000000
8, 6.705600, 22.250400, 0.000000
10, 4.267200, 29.870400, 0.000000
11, 0.609600, 33.528000, 0.000000
12, 0.000000, 33.528000, 0.000000
13, 0.609600, 0.000000, 0.000000
14, 1.219200, 0.000000, 0.000000
15, 1.828800, 0.000000, 0.000000
16, 0.304800, 0.000000, 0.000000
17, 0.914400, 0.000000, 0.000000
18, 1.524000, 0.000000, 0.000000
19, 2.133600, 0.000000, 0.000000
20, 3.505200, 0.914400, 0.000000
21, 4.572000, 1.828800, 0.000000
22, 5.638800, 2.743200, 0.000000
** ... 940 like lines cut

*ELEMENT, TYPE=CPE8, ELSET=EAll
1, 59, 286, 289, 58, 438, 439, 440, 62
2, 286, 220, 287, 289, 441, 442, 443, 439
3, 289, 287, 219, 288, 443, 444, 445, 446
4, 58, 289, 288, 4, 440, 446, 447, 61
5, 201, 290, 293, 292, 448, 449, 450, 451
6, 290, 81, 82, 293, 452, 101, 453, 449
7, 293, 82, 83, 291, 453, 102, 454, 455
8, 292, 293, 291, 231, 450, 455, 456, 457
9, 206, 294, 297, 296, 458, 459, 460, 461
10, 294, 77, 78, 297, 462, 97, 463, 459
11, 297, 78, 79, 295, 463, 98, 464, 465
12, 296, 297, 295, 233, 460, 465, 466, 467
13, 85, 86, 301, 300, 105, 468, 469, 470
14, 86, 87, 298, 301, 106, 471, 472, 468
15, 301, 298, 236, 299, 472, 473, 474, 475
16, 300, 301, 299, 200, 469, 475, 476, 477
17, 230, 302, 304, 272, 478, 479, 480, 481
18, 302, 30, 31, 304, 482, 46, 483, 479
19, 304, 31, 32, 303, 483, 47, 484, 485
20, 272, 304, 303, 211, 480, 485, 486, 487
** ... 267 like lines cut

*ELSET,ELSET=PART0_elements
1, 2, 3, 4, 5, 6,
7, 8, 9, 10, 11, 12,
13, 14, 15, 16, 17, 18,
19, 20, 21, 22, 23, 24,
25, 26, 27, 28, 29, 30,
31, 32, 33, 34, 35, 36,
37, 38, 39, 40, 41, 42,
43, 44, 45, 46, 47, 48,
49, 50, 51, 52, 53, 54,
55, 56, 57, 58, 59, 60,
61, 62, 63, 64, 65, 66,
67, 68, 69, 70, 71, 72,
73, 74, 75, 76, 77, 78,
79, 80, 81, 82, 83, 84,
85, 86, 87, 88, 89, 90,
91, 92, 93, 94, 95, 96,
97, 98, 99, 100, 101, 102,
103, 104, 105, 106, 107, 108,
109, 110, 111, 112, 113, 114,
115, 116, 117, 118, 119, 120,
** ... 28 like lines cut
*NSET,NSET=PART0_nodes
834, 829, 846, 847, 843, 848,
830, 842, 851, 853, 855, 856,
854, 857, 827, 850, 838, 858,
844, 837, 841, 828, 832, 845,
831, 849, 836, 840, 833, 839,
852, 835, 884, 885, 887, 889,
890, 869, 870, 880, 877, 881,
874, 862, 864, 861, 860, 866,
867, 871, 868, 872, 859, 863,
878, 879, 865, 886, 875, 882,
888, 876, 873, 883, 801, 813,
814, 815, 816, 794, 796, 802,
804, 817, 818, 819, 820, 821,
799, 805, 803, 793, 807, 809,
791, 792, 810, 790, 811, 800,
812, 795, 798, 797, 806, 808,
822, 825, 823, 824, 826, 28,
32, 59, 75, 21, 66, 79,
83, 81, 77, 14, 73, 34,
36, 38, 40, 30, 49, 63,
** ... 140 like lines cut
*NSET,NSET=L9_nodes
1, 12, 153, 173, 155, 165,
157, 163, 159, 167, 169, 161,
171, 172, 174, 170, 168, 158,
152, 160, 162, 164, 156, 166,
154, 178, 177, 175, 176, 182,
198, 185, 180, 196, 189, 195,
186, 188, 179, 191, 197, 194,
193, 181, 184, 187, 183, 192,
190

*MATERIAL,NAME=concrete
*ELASTIC
30000000000,0.2
*DENSITY
2300
*SOLID SECTION,ELSET=PART0_elements,MATERIAL=concrete
*NODAL THICKNESS
PART0_nodes, 176.784000
*STEP
*STATIC
** Pressure on component: L3-L8_faces
*DLOAD
1,P4,101325.000000
4,P4,101325.000000
214,P4,101325.000000
211,P4,101325.000000
212,P1,101325.000000
250,P4,101325.000000
211,P1,101325.000000
248,P4,101325.000000
103,P2,101325.000000
175,P1,101325.000000
33,P1,101325.000000
34,P1,101325.000000
10,P2,101325.000000
210,P4,101325.000000
235,P1,101325.000000
11,P2,101325.000000
236,P1,101325.000000
37,P1,101325.000000
13,P1,101325.000000
29,P1,101325.000000
** ... 30 like lines cut
** Fluid pressure on component: L0-L2_faces
*DLOAD
234,P3,418274.328000
*DLOAD
64,P3,406313.976000
*DLOAD
233,P3,424254.504000
*DLOAD
63,P3,412294.152000
*DLOAD
272,P4,377160.618000
*DLOAD
270,P4,366695.310000
*DLOAD
206,P4,398091.234000
*DLOAD
203,P4,387625.926000
*DLOAD
216,P1,109454.301750
*DLOAD
88,P4,190747.319250
*DLOAD
89,P1,320816.147250
*DLOAD
25,P1,223264.526250
*DLOAD
121,P3,353333.354250
*DLOAD
26,P1,207005.922750
*DLOAD
18,P2,288298.940250
*DLOAD
122,P3,337074.750750
*DLOAD
90,P1,304557.543750
*DLOAD
19,P2,272040.336750
*DLOAD
21,P1,255781.733250
*DLOAD
85,P4,174488.715750
*DLOAD
22,P1,239523.129750
*DLOAD
46,P2,158230.112250
*DLOAD
215,P1,125712.905250
*DLOAD
47,P2,141971.508750
** Gravity on component: PART0_elements
*DLOAD
PART0_elements,GRAV,9.810000,-1.,0.,0.
*BOUNDARY
L9_nodes,1,1,0.000000
*BOUNDARY
L9_nodes,2,2,0.000000
*EL FILE
E,S
*NODE FILE
RF,U
*EL PRINT,ELSET=EALL
S
*END STEP
